! Blank file in which we can put "overrides" for parameters
!VERBOSITY = 9
USE_WAVES = True
WAVE_METHOD = SURFACE_BANDS
SURFBAND_SOURCE = COUPLER
#override USE_LA_LI2016 = False